tests/data/power_flow/pandapower-symmetric-sym_gen/pgm_sym_output.json
{
  "line": [
    {
      "id": 3,
      "energized": 1,
      "loading": 0.01944958870624918,
      "p_from": -29937.95428713561,
      "q_from": -352463.94084698026,
      "i_from": 19.44958870624918,
      "s_from": 353733.1065991452,
      "p_to": 30012.85718444986,
      "q_to": 6002.5714369201305,
      "i_to": 1.6822402679433135,
      "s_to": 30607.22888844256
    }
  ],
  "node": [
    {
      "id": 1,
      "energized": 1,
      "u_pu": 1.0000353681156708,
      "u": 10500.371365214543,
      "u_angle": -5.281908209519328e-07
    },
    {
      "id": 2,
      "energized": 1,
      "u_pu": 1.000428511603601,
      "u": 10504.49937183781,
      "u_angle": -0.00035256677593538464
    }
  ],
  "source": [
    {
      "id": 4,
      "energized": 1,
      "p": -29937.95428682535,
      "q": -352463.9408448245,
      "i": 19.449588706129628,
      "s": 353733.1065969709,
      "pf": -0.08463430119628423
    }
  ],
  "sym_gen": [
    {
      "id": 6,
      "energized": 1,
      "p": 10000.0,
      "q": 2000.0,
      "i": 0.5605065381161325,
      "s": 10198.03902718557,
      "pf": 0.9805806756909201
    },
    {
      "id": 7,
      "energized": 1,
      "p": 10004.28511603601,
      "q": 2000.8570232072018,
      "i": 0.5607467216716094,
      "s": 10202.409005242695,
      "pf": 0.9805806756909201
    },
    {
      "id": 8,
      "energized": 1,
      "p": 10008.572068293963,
      "q": 2001.7144136587924,
      "i": 0.560987008148527,
      "s": 10206.780855886123,
      "pf": 0.9805806756909201
    },
    {
      "id": 9,
      "energized": 1,
      "p": 0.0,
      "q": 0.0,
      "i": 0.0,
      "s": 0.0,
      "pf": 0.0
    }
  ]
}