tests/data/power_flow/pandapower-symmetric-sym_gen/sym_output.json
{
  "line": [
    {
      "id": 3,
      "loading": 0.019449588806728695,
      "p_from": -29937.96061455936,
      "q_from": -352463.942143622,
      "i_from": 19.449588806728695,
      "s_from": 353733.1084266518,
      "p_to": 30012.863513887954,
      "q_to": 6002.572729176601,
      "i_to": 1.682240622968288,
      "s_to": 30607.23534839959
    }
  ],
  "node": [
    {
      "id": 1,
      "u_pu": 1.0000353681158627,
      "u": 10500.371365216559,
      "u_angle": -5.281902025848583e-07
    },
    {
      "id": 2,
      "u_pu": 1.0004285116204892,
      "u": 10504.499372015136,
      "u_angle": -0.00035256676677648135
    }
  ],
  "source": [
    {
      "id": 4,
      "p": -29937.960630987687,
      "q": -352463.94213887537,
      "i": 19.449588806545098,
      "s": 353733.1084233126
    }
  ],
  "sym_gen": [
    {
      "id": 6,
      "p": 10000.0,
      "q": 2000.0
    },
    {
      "id": 7,
      "p": 10004.285116204894,
      "q": 2000.8570232409786
    },
    {
      "id": 8,
      "p": 10008.572068631873,
      "q": 2001.7144137263747
    },
    {
      "id": 9,
      "p": 0.0,
      "q": 0.0
    }
  ]
}